data/raw/ieee14/case14_powerworld_branch_sequence.m
%% IEEE 14-bus sample input (MATPOWER-style)

%% bus data
% bus_i type Pd Qd Gs Bs area Vm Va baseKV zone Vmax Vmin
mpc.bus = [
	1	3	0	0	0	0	1	1.06	0	0	1	1.06	0.94;
	2	2	21.7	12.7	0	0	1	1.045	-4.98	0	1	1.06	0.94;
	3	2	94.2	19	0	0	1	1.01	-12.72	0	1	1.06	0.94;
	4	1	47.8	-3.9	0	0	1	1.019	-10.33	0	1	1.06	0.94;
	5	1	7.6	1.6	0	0	1	1.02	-8.78	0	1	1.06	0.94;
	6	2	11.2	7.5	0	0	1	1.07	-14.22	0	1	1.06	0.94;
	7	1	0	0	0	0	1	1.062	-13.37	0	1	1.06	0.94;
	8	2	0	0	0	0	1	1.09	-13.36	0	1	1.06	0.94;
	9	1	29.5	16.6	0	19	1	1.056	-14.94	0	1	1.06	0.94;
	10	1	9	5.8	0	0	1	1.051	-15.1	0	1	1.06	0.94;
	11	1	3.5	1.8	0	0	1	1.057	-14.79	0	1	1.06	0.94;
	12	1	6.1	1.6	0	0	1	1.055	-15.07	0	1	1.06	0.94;
	13	1	13.5	5.8	0	0	1	1.05	-15.16	0	1	1.06	0.94;
	14	1	14.9	5	0	0	1	1.036	-16.04	0	1	1.06	0.94;
];

%% generator data
% bus Pg Qg Qmax Qmin Vg mBase status Pmax Pmin Pc1 Pc2 Qc1min Qc1max Qc2min Qc2max ramp_agc ramp_10 ramp_30 ramp_q apf
mpc.gen = [
	1	232.4	-16.9	10	0	1.06	100	1	332.4	0	0	0	0	0	0	0	0	0	0	0	0;
	2	40	42.4	50	-40	1.045	100	1	140	0	0	0	0	0	0	0	0	0	0	0	0;
	3	0	23.4	40	0	1.01	100	1	100	0	0	0	0	0	0	0	0	0	0	0	0;
	6	0	12.2	24	-6	1.07	100	1	100	0	0	0	0	0	0	0	0	0	0	0	0;
	8	0	17.4	24	-6	1.09	100	1	100	0	0	0	0	0	0	0	0	0	0	0	0;
];

%% branch data
% fbus tbus r x b rateA rateB rateC ratio angle status angmin angmax
mpc.branch = [
	1	2	0.01938	0.05917	0.0528	0	0	0	0	0	1	-360	360;
	1	5	0.05403	0.22304	0.0492	0	0	0	0	0	1	-360	360;
	2	3	0.04699	0.19797	0.0438	0	0	0	0	0	1	-360	360;
	2	4	0.05811	0.17632	0.034	0	0	0	0	0	1	-360	360;
	2	5	0.05695	0.17388	0.0346	0	0	0	0	0	1	-360	360;
	3	4	0.06701	0.17103	0.0128	0	0	0	0	0	1	-360	360;
	4	5	0.01335	0.04211	0	0	0	0	0	0	1	-360	360;
	4	7	0	0.20912	0	0	0	0	0.978	0	1	-360	360;
	4	9	0	0.55618	0	0	0	0	0.969	0	1	-360	360;
	5	6	0	0.25202	0	0	0	0	0.932	0	1	-360	360;
	6	11	0.09498	0.1989	0	0	0	0	0	0	1	-360	360;
	6	12	0.12291	0.25581	0	0	0	0	0	0	1	-360	360;
	6	13	0.06615	0.13027	0	0	0	0	0	0	1	-360	360;
	7	8	0	0.17615	0	0	0	0	0	0	1	-360	360;
	7	9	0	0.11001	0	0	0	0	0	0	1	-360	360;
	9	10	0.03181	0.0845	0	0	0	0	0	0	1	-360	360;
	9	14	0.12711	0.27038	0	0	0	0	0	0	1	-360	360;
	10	11	0.08205	0.19207	0	0	0	0	0	0	1	-360	360;
	12	13	0.22092	0.19988	0	0	0	0	0	0	1	-360	360;
	13	14	0.17093	0.34802	0	0	0	0	0	0	1	-360	360;
];

%%----- OPF Data -----%%
%% generator cost data
% 1 startup shutdown n x1 y1 ... xn yn
% 2 startup shutdown n c(n-1) ... c0
mpc.gencost = [
	2	0	0	3	0.0430292599	20	0;
	2	0	0	3	0.25	20	0;
	2	0	0	3	0.01	40	0;
	2	0	0	3	0.01	40	0;
	2	0	0	3	0.01	40	0;
];

%% bus names
mpc.bus_name = {
	'Bus 1     HV';
	'Bus 2     HV';
	'Bus 3     HV';
	'Bus 4     HV';
	'Bus 5     HV';
	'Bus 6     LV';
	'Bus 7     ZV';
	'Bus 8     TV';
	'Bus 9     LV';
	'Bus 10    LV';
	'Bus 11    LV';
	'Bus 12    LV';
	'Bus 13    LV';
	'Bus 14    LV';
};

%%----- PowerWorld Branch Sequence Data (Partial) -----%%
%% Branch zero-sequence values were transcribed from the PowerWorld
%% Sequence Data -> Branches screenshot provided by the team.
%% Generator sequence fields are still placeholders because the
%% PowerWorld generator sequence reactance/resistance cells were blank in the screenshot.

%% generator sequence data
%% bus r1 x1 r2 x2 r0 x0 rn xn
mpc.gen_seq = [
	1	0.00000	0.20000	0.00000	0.20000	0.00000	0.20000	0.00000	0.00000;
	2	0.00000	0.20000	0.00000	0.20000	0.00000	0.20000	0.00000	0.00000;
	3	0.00000	0.20000	0.00000	0.20000	0.00000	0.20000	0.00000	0.00000;
	6	0.00000	0.20000	0.00000	0.20000	0.00000	0.20000	0.00000	0.00000;
	8	0.00000	0.20000	0.00000	0.20000	0.00000	0.20000	0.00000	0.00000;
];

%% branch/transformer sequence data
%% fbus tbus r2 x2 b2 r0 x0 b0 zero_sequence_status
mpc.branch_seq = [
	1	2	0.01938	0.05917	0.05280	0.05000	0.15000	0.05000	1;
	1	5	0.05403	0.22304	0.04920	0.14000	0.56000	0.05000	1;
	2	3	0.04699	0.19797	0.04380	0.12000	0.49000	0.04000	1;
	2	4	0.05811	0.17632	0.03400	0.15000	0.44000	0.03000	1;
	2	5	0.05695	0.17388	0.03460	0.14000	0.43000	0.03000	1;
	3	4	0.06701	0.17103	0.01280	0.17000	0.43000	0.01000	1;
	4	5	0.01335	0.04211	0.00000	0.03000	0.11000	0.00000	1;
	4	7	0.00000	0.20912	0.00000	0.00000	0.52000	0.00000	1;
	4	9	0.00000	0.55618	0.00000	0.00000	1.39000	0.00000	1;
	5	6	0.00000	0.25202	0.00000	0.00000	0.63000	0.00000	1;
	6	11	0.09498	0.19890	0.00000	0.24000	0.50000	0.00000	1;
	6	12	0.12291	0.25581	0.00000	0.31000	0.64000	0.00000	1;
	6	13	0.06615	0.13027	0.00000	0.17000	0.33000	0.00000	1;
	7	8	0.00000	0.17615	0.00000	0.00000	0.44000	0.00000	1;
	7	9	0.00000	0.11001	0.00000	0.00000	0.28000	0.00000	1;
	9	10	0.03181	0.08450	0.00000	0.08000	0.21000	0.00000	1;
	9	14	0.12711	0.27038	0.00000	0.32000	0.68000	0.00000	1;
	10	11	0.08205	0.19207	0.00000	0.21000	0.48000	0.00000	1;
	12	13	0.22092	0.19988	0.00000	0.55000	0.50000	0.00000	1;
	13	14	0.17093	0.34802	0.00000	0.43000	0.87000	0.00000	1;
];

%% optional bus/load/shunt sequence admittance data
%% bus g1 b1 g2 b2 g0 b0
mpc.bus_seq = [
	1	0.00000	0.00000	0.00000	0.00000	0.00000	0.00000;
	2	0.00000	0.00000	0.00000	0.00000	0.00000	0.00000;
	3	0.00000	0.00000	0.00000	0.00000	0.00000	0.00000;
	4	0.00000	0.00000	0.00000	0.00000	0.00000	0.00000;
	5	0.00000	0.00000	0.00000	0.00000	0.00000	0.00000;
	6	0.00000	0.00000	0.00000	0.00000	0.00000	0.00000;
	7	0.00000	0.00000	0.00000	0.00000	0.00000	0.00000;
	8	0.00000	0.00000	0.00000	0.00000	0.00000	0.00000;
	9	0.00000	0.00000	0.00000	0.00000	0.00000	0.00000;
	10	0.00000	0.00000	0.00000	0.00000	0.00000	0.00000;
	11	0.00000	0.00000	0.00000	0.00000	0.00000	0.00000;
	12	0.00000	0.00000	0.00000	0.00000	0.00000	0.00000;
	13	0.00000	0.00000	0.00000	0.00000	0.00000	0.00000;
	14	0.00000	0.00000	0.00000	0.00000	0.00000	0.00000;
];
